32

C 	   -0.07386 	    0.27952 	    0.53224  
C 	    0.07386 	   -0.27952 	   -0.53224  
H 	   -0.20330 	    0.76941 	    1.46505  
H 	    0.20330 	   -0.76941 	   -1.46505  
C 	    6.27454 	   10.33177 	    9.65585  
C 	    5.98546 	   10.90317 	   10.68415  
H 	    6.52787 	    9.83104 	    8.75475  
H 	    5.73213 	   11.40390 	   11.58525  
C 	   17.89479 	   10.44890 	    9.86468  
C 	   18.88521 	   10.78604 	   10.47532  
H 	   17.02689 	   10.15347 	    9.32956  
H 	   19.75311 	   11.08147 	   11.01044  
C 	   18.34852 	   10.50120 	   -0.59298  
C 	   18.43148 	   10.73374 	    0.59298  
H 	   18.27582 	   10.29743 	   -1.63225  
H 	   18.50418 	   10.93751 	    1.63225  
C 	    6.00189 	   10.93685 	    0.49845  
C 	    6.25811 	   10.29810 	   -0.49845  
H 	    5.77737 	   11.49658 	    1.37204  
H 	    6.48263 	    9.73836 	   -1.37204  
C 	   12.03740 	   -0.14024 	    9.62443  
C 	   12.48260 	    0.14024 	   10.71557  
H 	   11.64728 	   -0.38603 	    8.66825  
H 	   12.87272 	    0.38603 	   11.67175  
C 	    0.42351 	   -0.05670 	   10.59929  
C 	   -0.42351 	    0.05670 	    9.74071  
H 	    1.16575 	   -0.15608 	   11.35167  
H 	   -1.16575 	    0.15608 	    8.98833  
C 	   12.39901 	   -0.29266 	   -0.51176  
C 	   12.12099 	    0.29266 	    0.51176  
H 	   12.64265 	   -0.80557 	   -1.40866  
H 	   11.87735 	    0.80557 	    1.40866  
